*Heading
** Job name: Job-1 Model name: x3y8
** Generated by: AbaqusLink
*Preprint, echo=NO, model=Yes, history=NO, contact=NO
**
** Model definition
**
*Part, NAME=Part-1
*Node,	 nset=node-1
 1,	 0.0000,	 0.0000,	 -0.0000
 2,	 -0.0000,	 1.0245,	 -0.0000
 3,	 -0.0000,	 2.0490,	 0.0000
 4,	 -0.0000,	 3.0735,	 0.0000
 5,	 0.0000,	 4.0980,	 0.0000
 6,	 1.0158,	 0.0000,	 1.2037
 7,	 1.0158,	 1.0245,	 1.2037
 8,	 1.0158,	 2.0490,	 1.2037
 9,	 1.0158,	 3.0735,	 1.2037
 10,	 1.0158,	 4.0980,	 1.2037
 11,	 2.5250,	 -0.0000,	 1.6540
 12,	 2.5250,	 1.0245,	 1.6540
 13,	 2.5250,	 2.0490,	 1.6540
 14,	 2.5250,	 3.0735,	 1.6540
 15,	 2.5250,	 4.0980,	 1.6540
 16,	 4.0343,	 0.0000,	 1.2037
 17,	 4.0343,	 1.0245,	 1.2037
 18,	 4.0343,	 2.0490,	 1.2037
 19,	 4.0343,	 3.0735,	 1.2037
 20,	 4.0343,	 4.0980,	 1.2037
** ... 3701 like lines cut
*Element,	 elset=STRUC,	 type=S3R
 1,	 50,	 51,	 58	 
 2,	 51,	 59,	 58	 
 3,	 51,	 52,	 59	 
 4,	 52,	 60,	 59	 
 5,	 52,	 53,	 60	 
 6,	 53,	 61,	 60	 
 7,	 53,	 54,	 61	 
 8,	 54,	 62,	 61	 
 9,	 54,	 55,	 62	 
 10,	 55,	 63,	 62	 
 11,	 55,	 56,	 63	 
 12,	 56,	 64,	 63	 
 13,	 56,	 57,	 64	 
 14,	 58,	 59,	 65	 
 15,	 59,	 66,	 65	 
 16,	 59,	 60,	 66	 
 17,	 60,	 67,	 66	 
 18,	 60,	 61,	 67	 
 19,	 61,	 68,	 67	 
 20,	 61,	 62,	 68	 
** ... 7180 like lines cut
** Section: Section-1
*Shell Section, elset=Struc, material=concrete
0.060000 
*end Part
*Assembly, NAME = Assembly1
*Instance, NAME=PART-A, PART=Part-1
*END INSTANCE
*Nset, nset=nodes, instance=Part-A, generate
 1,	 3721,	 1
*Elset, elset=Struc, instance=Part-A, generate
 1,	 7200,	 1
*Elset, elset=_Surf-1_SNEG,  internal, instance=Part-A, generate
 1,	 7200,	 1
*Nset, nset=boundery, instance=Part-A
1, 2, 3, 13, 14, 15, 
*Surface, type=ELEMENT, name=Surf-1
_Surf-1_SNEG, SNEG
*End Assembly
**
** MATERIALS
** 
*Material, name=concrete
*Elastic
30000000000.000000,	 0.200000 
**
 *DENSITY
 2500.000000
** ----------------------------------------------------------------
**
** STEP: Step-1
** 
*Step, name=Step-1
*Static
0.1, 1., 1e-05, 0.1
**
** 
** BOUNDARY CONDITIONS
** 
** Name: BC-1
*Boundary
boundery, Encastre
** 
** LOADS
** 
** Name: Load-1   Type: Pressure
*DLOAD
Struc, GRAV, 9.81, 0.0, 0.0, -1.0
**
** OUTPUT REQUESTS
** 
*Restart, write, frequency=0
** 
** FIELD OUTPUT: F-Output-1
** 
*Output, field
#*Node Output
#CF, RF, U
#*Element Output
#ALPHA, ALPHAN, CS11, CTSHR, MISES, MISESMAX, MISESONLY, PRESSONLY, PS, S, SF, SM, SSAVG, TRIAX, TSHR, VS
*Output, field, frequency=0
**
** HISTORY OUTPUT: H-Output-1
** 
*Output, history, variable=PRESELECT
*NODE PRINT
U,
RF,
*EL PRINT
S,
*End Step